/*---------------------------------------------------------------------------*\
| =========                 |                                                 |
| \\      /  F ield         | OpenFOAM: The Open Source CFD Toolbox           |
|  \\    /   O peration     | Version:  2012                                  |
|   \\  /    A nd           | Website:  www.openfoam.com                      |
|    \\/     M anipulation  |                                                 |
\*---------------------------------------------------------------------------*/
Build  : _e91649cfd8-20210420 OPENFOAM=2012 patch=210414
Arch   : "LSB;label=32;scalar=64"
Exec   : pimpleFoam
Date   : May 12 2021
Time   : 09:14:39
Host   : scw-a5ymyf
PID    : 7600
I/O    : uncollated
Case   : /home/julian/software/mbdyn-adapter/tutorials/cavityFSI/fluid
nProcs : 1
trapFpe: Floating point exception trapping enabled (FOAM_SIGFPE).
fileModificationChecking : Monitoring run-time modified files using timeStampMaster (fileModificationSkew 5, maxFileModificationPolls 20)
allowSystemOperations : Allowing user-supplied system call operations

// * * * * * * * * * * * * * * * * * * * * * * * * * * * * * * * * * * * * * //
Create time

--> FOAM Warning : 
    From static Foam::IOstreamOption::compressionType Foam::IOstreamOption::compressionEnum(const Foam::word&, Foam::IOstreamOption::compressionType)
    in file db/IOstreams/IOstreams/IOstreamOption.C at line 115
    Unknown compression specifier 'uncompressed', using compression off
Create mesh for time = 0

Selecting dynamicFvMesh dynamicMotionSolverFvMesh
Selecting motion solver: displacementLaplacian
Applying solid body motion to entire mesh
Selecting motion diffusion: quadratic
Selecting motion diffusion: inverseDistance
Selecting patchDistMethod meshWave

PIMPLE: Operating solver in PISO mode

Reading field p

Reading field U

Using dynamicCode for patch inlet on field U at line 25 in "/home/julian/software/mbdyn-adapter/tutorials/cavityFSI/fluid/0/U.boundaryField.inlet"
Using dynamicCode for patch movingWall on field U at line 41 in "/home/julian/software/mbdyn-adapter/tutorials/cavityFSI/fluid/0/U.boundaryField.movingWall"
Reading/calculating face flux field phi

Selecting incompressible transport model Newtonian
Selecting turbulence model type laminar
Selecting laminar stress model Stokes
No MRF models present

No finite volume options present
Constructing face velocity Uf

Courant Number mean: 3.1062499999977e-11 max: 3.2e-11

Starting time loop

---[preciceAdapter] The preciceAdapter was loaded.
---[preciceAdapter] Reading preciceDict...
--> FOAM Warning : 
    From void adapterInfo(std::string, std::string)
    in file Utilities.C at line 50
    [31mError (deferred - will exit later) in the preCICE adapter: [0m
Entry 'readData' not found in dictionary "/home/julian/software/mbdyn-adapter/tutorials/cavityFSI/fluid/system/preciceDict.interfaces.Interface1"


Courant Number mean: 3.1062499999977e-11 max: 3.2e-11
Time = 0.01

PIMPLE: iteration 1
smoothSolver:  Solving for cellDisplacementx, Initial residual = 0, Final residual = 0, No Iterations 2
smoothSolver:  Solving for cellDisplacementy, Initial residual = 0, Final residual = 0, No Iterations 2
smoothSolver:  Solving for cellDisplacementz, Initial residual = 0, Final residual = 0, No Iterations 2
DICPCG:  Solving for pcorr, Initial residual = 1, Final residual = 0.00088221079576421, No Iterations 63
DICPCG:  Solving for pcorr, Initial residual = 3.2987499114838e-05, Final residual = 7.7082132761818e-09, No Iterations 37
time step continuity errors : sum local = 1.0173122100457e-14, global = -4.2162404925927e-16, cumulative = -4.2162404925927e-16
smoothSolver:  Solving for Ux, Initial residual = 1, Final residual = 1.077881547354e-07, No Iterations 5
smoothSolver:  Solving for Uy, Initial residual = 0.99999999999998, Final residual = 9.9683055558781e-08, No Iterations 5
smoothSolver:  Solving for Uz, Initial residual = 0, Final residual = 0, No Iterations 2
DICPCG:  Solving for p, Initial residual = 1, Final residual = 0.00095294490627854, No Iterations 62
DICPCG:  Solving for p, Initial residual = 3.6266097695022e-05, Final residual = 2.6710017257754e-08, No Iterations 34
time step continuity errors : sum local = 3.1948472278494e-14, global = 9.4315156657345e-17, cumulative = -3.2730889260192e-16
DICPCG:  Solving for p, Initial residual = 0.010389403928143, Final residual = 9.9645617361596e-06, No Iterations 53
DICPCG:  Solving for p, Initial residual = 9.7998476628401e-06, Final residual = 9.0578981713286e-09, No Iterations 33
time step continuity errors : sum local = 1.1058431268113e-14, global = -5.5405633126397e-16, cumulative = -8.8136522386589e-16
DICPCG:  Solving for p, Initial residual = 0.0026141748755056, Final residual = 2.2383793259504e-06, No Iterations 53
DICPCG:  Solving for p, Initial residual = 2.2304038294921e-06, Final residual = 9.188999701615e-09, No Iterations 27
time step continuity errors : sum local = 1.127049717414e-14, global = -6.5899240552924e-17, cumulative = -9.4726446441882e-16
DICPCG:  Solving for p, Initial residual = 0.00081061659871832, Final residual = 7.3410592209151e-07, No Iterations 53
DICPCG:  Solving for p, Initial residual = 7.3325639452389e-07, Final residual = 9.9635338483135e-09, No Iterations 20
time step continuity errors : sum local = 1.2239413576505e-14, global = -1.0850960486439e-16, cumulative = -1.0557740692832e-15
ExecutionTime = 0.98 s  ClockTime = 1 s

